
  -ISIS-  08140218133D

 24 26  0  0  0  0  0  0  0  0999 V2000
    1.6082   -0.9606   -0.0390 C   0  0  0  0  0  0  0  0  0  0  0  0
    2.7733   -0.2949   -0.0580 C   0  0  0  0  0  0  0  0  0  0  0  0
    2.7773    1.0451   -0.0570 C   0  0  0  0  0  0  0  0  0  0  0  0
    1.6163    1.7177   -0.0380 C   0  0  0  0  0  0  0  0  0  0  0  0
    0.4399   -0.2900   -0.0190 C   0  0  0  0  0  0  0  0  0  0  0  0
    0.4439    1.0543   -0.0190 C   0  0  0  0  0  0  0  0  0  0  0  0
   -0.7139    1.7661    0.0000 C   0  0  0  0  0  0  0  0  0  0  0  0
   -0.7221   -0.9950    0.0000 C   0  0  0  0  0  0  0  0  0  0  0  0
   -1.8800   -0.2831    0.0190 C   0  0  0  0  0  0  0  0  0  0  0  0
   -1.8759    1.0611    0.0190 C   0  0  0  0  0  0  0  0  0  0  0  0
   -3.0522   -0.9466    0.0400 C   0  0  0  0  0  0  0  0  0  0  0  0
   -4.2133   -0.2742    0.0600 C   0  0  0  0  0  0  0  0  0  0  0  0
   -4.2093    1.0659    0.0600 C   0  0  0  0  0  0  0  0  0  0  0  0
   -3.0443    1.7315    0.0400 C   0  0  0  0  0  0  0  0  0  0  0  0
   -0.7103    2.9786    0.0000 O   0  0  0  0  0  0  0  0  0  0  0  0
   -0.7257   -2.2075   -0.0010 O   0  0  0  0  0  0  0  0  0  0  0  0
    1.6560   -2.0636   -0.0400 H   0  0  0  0  0  0  0  0  0  0  0  0
    3.7289   -0.8479   -0.0740 H   0  0  0  0  0  0  0  0  0  0  0  0
    3.7362    1.5923   -0.0720 H   0  0  0  0  0  0  0  0  0  0  0  0
    1.6707    2.8204   -0.0380 H   0  0  0  0  0  0  0  0  0  0  0  0
   -3.1065   -2.0495    0.0410 H   0  0  0  0  0  0  0  0  0  0  0  0
   -5.1721   -0.8214    0.0780 H   0  0  0  0  0  0  0  0  0  0  0  0
   -5.1649    1.6187    0.0770 H   0  0  0  0  0  0  0  0  0  0  0  0
   -3.0921    2.8347    0.0410 H   0  0  0  0  0  0  0  0  0  0  0  0
  1  2  2  0  0  0  0
  1  5  1  0  0  0  0
  1 17  1  0  0  0  0
  2  3  1  0  0  0  0
  2 18  1  0  0  0  0
  3  4  2  0  0  0  0
  3 19  1  0  0  0  0
  4  6  1  0  0  0  0
  4 20  1  0  0  0  0
  5  6  2  0  0  0  0
  5  8  1  0  0  0  0
  6  7  1  0  0  0  0
  7 10  1  0  0  0  0
  7 15  2  0  0  0  0
  8  9  1  0  0  0  0
  8 16  2  0  0  0  0
  9 10  2  0  0  0  0
  9 11  1  0  0  0  0
 10 14  1  0  0  0  0
 11 12  2  0  0  0  0
 11 21  1  0  0  0  0
 12 13  1  0  0  0  0
 12 22  1  0  0  0  0
 13 14  2  0  0  0  0
 13 23  1  0  0  0  0
 14 24  1  0  0  0  0
M  END
